version 2
run General-0-20190603-17:58:20-1584
attr configname General
attr datetime 20190603-17:58:20
attr experiment General
attr inifile omnetpp.ini
attr iterationvars ""
attr iterationvarsf ""
attr measurement ""
attr network Network
attr processid 1584
attr repetition 0
attr replication #0
attr resultdir results
attr runnumber 0
attr seedset 0
param Network.node[0].app.interArrivalTime exponential(1)
param Network.node[0].app.packetByteSize 125000
param Network.node[0].app.destination 5
param Network.node[2].app.interArrivalTime exponential(1)
param Network.node[2].app.packetByteSize 125000
param Network.node[2].app.destination 5

vector 0 Network.node[0].lnk[0] "Buffer Size" ETV
vector 1 Network.node[2].lnk[0] "Buffer Size" ETV
vector 2 Network.node[7].lnk[0] "Buffer Size" ETV
vector 3 Network.node[1].lnk[0] "Buffer Size" ETV
vector 4 Network.node[6].lnk[0] "Buffer Size" ETV
vector 5 Network.node[5].app Delay ETV
vector 6 Network.node[5].app "Hop count" ETV
vector 7 Network.node[5].lnk[0] "Buffer Size" ETV
vector 8 Network.node[4].lnk[0] "Buffer Size" ETV
vector 9 Network.node[3].lnk[0] "Buffer Size" ETV
vector 10 Network.node[0].app Delay ETV
vector 11 Network.node[0].app "Hop count" ETV
0	3	0.898560388484	1
0	4	0.898560388484	0
0	7	1.821783519955	1
0	12	1.898560388484	0
0	37	3.773328855839	1
0	38	3.773328855839	0
0	47	3.859804212075	1
0	80	4.324377342509	2
0	85	4.773328855839	1
0	96	4.859804212075	2
0	98	4.859804212075	3
0	121	5.301383768902	4
0	135	5.773328855839	3
0	147	5.786511932624	4
0	153	6.139671071762	5
0	156	6.198055740855	6
0	163	6.52596940626	7
0	165	6.52596940626	8
0	171	6.773328855839	7
0	213	7.564128706924	8
0	214	7.773328855839	7
0	215	7.773328855839	6
1	10	1.859604212075	1
1	11	1.859604212075	0
1	19	2.646805352057	1
1	20	2.859604212075	0
1	72	3.899160388484	1
1	73	3.899160388484	0
1	83	4.52576940626	1
1	84	4.52576940626	0
1	118	4.899160388484	1
1	122	5.52576940626	0
1	133	5.563928706924	1
1	134	5.563928706924	0
1	150	6.139447903807	1
1	166	6.563928706924	0
1	200	6.773928855839	1
1	201	7.563928706924	0
2	15	1.898660388484	1
2	16	1.898660388484	0
2	29	2.898660388484	1
2	30	2.898660388484	0
2	88	4.773428855839	1
2	89	4.773428855839	0
2	139	5.773428855839	1
2	140	5.773428855839	0
2	175	6.773428855839	1
2	176	6.773428855839	0
2	221	7.773428855839	1
2	222	7.773428855839	2
2	223	7.773428855839	1
3	23	2.859704212075	1
3	24	2.859704212075	0
3	43	3.859704212075	1
3	44	3.859704212075	0
3	77	3.899260388484	1
3	90	4.859704212075	0
3	128	5.52586940626	1
3	129	5.52586940626	2
3	130	5.52586940626	1
3	157	6.52586940626	0
3	169	6.564028706924	1
3	170	6.564028706924	0
3	208	7.564028706924	1
3	209	7.564028706924	2
3	210	7.564028706924	1
4	33	2.898760388484	1
4	34	2.898760388484	0
4	52	3.898760388484	1
4	53	3.898760388484	0
4	143	5.773528855839	1
4	144	5.773528855839	0
4	180	6.773528855839	1
4	181	6.773528855839	0
4	227	7.773528855839	1
4	228	7.773528855839	0
5	56	3.898860388484	3.0003
5	102	4.898860388484	3.077076868529
5	184	6.773628855839	3.0003
6	56	3.898860388484	3
6	102	4.898860388484	3
6	184	6.773628855839	3
7	57	3.898860388484	1
7	58	3.898860388484	0
7	103	4.898860388484	1
7	104	4.898860388484	0
7	185	6.773628855839	1
7	186	6.773628855839	0
8	62	3.898960388484	1
8	63	3.898960388484	0
8	108	4.898960388484	1
8	109	4.898960388484	0
8	190	6.773728855839	1
8	191	6.773728855839	0
9	67	3.899060388484	1
9	68	3.899060388484	0
9	113	4.899060388484	1
9	114	4.899060388484	0
9	195	6.773828855839	1
9	196	6.773828855839	0
10	97	4.859804212075	0.960943823591
10	164	6.52596940626	1.627109017776
11	97	4.859804212075	4
11	164	6.52596940626	4

